iidm/iidm-serde/src/test/resources/V1_2/eurostag-tutorial-example1-terminalMock.xml
<?xml version="1.0" encoding="UTF-8"?>
<iidm:network xmlns:iidm="http://www.powsybl.org/schema/iidm/1_2" xmlns:mock="http://www.powsybl.org/schema/iidm/ext/terminal_mock/1_2" id="sim1" caseDate="2013-01-15T18:45:00.000+01:00" forecastDistance="0" sourceFormat="test">
    <iidm:extension id="LOAD">
        <mock:terminalMock>
            <mock:terminal id="LOAD"/>
        </mock:terminalMock>
    </iidm:extension>
</iidm:network>
